*LTspice
*
*TLP183
*Voltage:3.75Kv; Ctr Min:50%; VCE V(Br)Ceo:80V. DC
*AE01009291
*
*netlist
.include TLP291.cir
*
*params
.param RK=210
.param RC=500
*
.param VSOURCE=5
.param VPUL=3.3
*
.param frec=500
.param percent=50
.param delay=1m
.param repeat=4
.param tr=50n
.param tf=50n
*
.param cycle=1/frec
.param x_base=(cycle*repeat)+delay
.param duty=(percent/100)*cycle
*
*transient response
.tran 0 {x_base} 0 uic startup
*
*.backanno
*.op

